Circuit: * I:\MotorSim\Test.asc

Limiting rise time of source v6 to 0.05
Limiting fall time of source v6 to 0.05
Limiting rise time of source v5 to 0.05
Limiting fall time of source v5 to 0.05
Limiting rise time of source v4 to 0.05
Limiting fall time of source v4 to 0.05
Limiting rise time of source v3 to 0.05
Limiting fall time of source v3 to 0.05
Limiting rise time of source v2 to 0.05
Limiting fall time of source v2 to 0.05
Limiting rise time of source v1 to 0.05
Limiting fall time of source v1 to 0.05
WARNING: Node NC_02 is floating.

WARNING: Less than two connections to node NC_01.  This node is used by D3.
WARNING: Less than two connections to node NC_02.  This node is used by D3.
Direct Newton iteration for .op point succeeded.

Date: Tue Jun 08 19:59:36 2021
Total elapsed time: 0.460 seconds.

tnom = 27
temp = 27
method = modified trap
totiter = 2337
traniter = 2305
tranpoints = 1133
accept = 1116
rejected = 17
matrix size = 22
fillins = 0
solver = Normal
Matrix Compiler1: 532 bytes object code size  0.3/0.1/[0.1]
Matrix Compiler2: off  [0.1]/0.3/0.3

